Circuit: * C:\Users\mnrpr\Documents\LTspiceXVII\BGR.asc

Direct Newton iteration for .op point succeeded.
Ignoring empty pin current: Ix(u1:1)
Ignoring empty pin current: Ix(u1:2)
Ignoring empty pin current: Ix(u1:1)
Ignoring empty pin current: Ix(u1:2)
.step temp=-40°C
.step temp=-30°C
.step temp=-10°C
.step temp=20°C
.step temp=40°C
.step temp=50°C
.step temp=80°C
.step temp=110°C

Date: Mon Jun 08 22:01:46 2020
Total elapsed time: 0.780 seconds.

tnom = 27
temp = 110
method = modified trap
totiter = 90
traniter = 56
tranpoints = 29
accept = 29
rejected = 0
matrix size = 30
fillins = 11
solver = Normal
Matrix Compiler1:     142 opcodes
Matrix Compiler2:     216 opcodes
